 Case_ID   DISCON_in    ElastoDyn     Fst      Fst      Fst      Fst                      ServoDyn                    
          LoggingLevel   RotSpeed  ChkptTime    DT   OutFileFmt  TMax                   DLL_FileName                  
    0          2            7         1.0     0.025      2       3.0   /Users/gbarter/devel/ROSCO/lib/libdiscon.dylib 
